PGE_Models/GLD Simulation Primary/GLD Simulation Primary/PL0001/PL0001_glmfile_PVdist.glm
//*********************************************
// Include the modules
//*********************************************

module climate;
module generators;

//*********************************************
// Climate
//*********************************************

object climate {
    tmyfile "CA-San_francisco.tmy2";
}

//object csv_reader {
//    name my_csv_reader;
//    filename climate_csv.csv;
//}

//object climate {
//    tmyfile climate_csv.csv;
//    reader my_csv_reader;
//}

//*********************************************
// Transformer config Objects
//*********************************************
object transformer_configuration {
	name Xfrm_config_PV_L_79098_A;
	connect_type SINGLE_PHASE_CENTER_TAPPED;
	install_type POLETOP;
	power_rating 10000;
	primary_voltage 2400;
	secondary_voltage 120;
	resistance 0.09;
	reactance 1.81;
}

object transformer_configuration {
	name Xfrm_config_PV_L_79098_B;
	connect_type SINGLE_PHASE_CENTER_TAPPED;
	install_type POLETOP;
	power_rating 10000;
	primary_voltage 2400;
	secondary_voltage 120;
	resistance 0.09;
	reactance 1.81;
}

object transformer_configuration {
	name Xfrm_config_PV_L_79098_C;
	connect_type SINGLE_PHASE_CENTER_TAPPED;
	install_type POLETOP;
	power_rating 10000;
	primary_voltage 2400;
	secondary_voltage 120;
	resistance 0.09;
	reactance 1.81;
}

object transformer_configuration {
	name Xfrm_config_PV_L_51887_B;
	connect_type SINGLE_PHASE_CENTER_TAPPED;
	install_type POLETOP;
	power_rating 10000;
	primary_voltage 2400;
	secondary_voltage 120;
	resistance 0.09;
	reactance 1.81;
}

object transformer_configuration {
	name Xfrm_config_PV_L_42477_C;
	connect_type SINGLE_PHASE_CENTER_TAPPED;
	install_type POLETOP;
	power_rating 10000;
	primary_voltage 2400;
	secondary_voltage 120;
	resistance 0.09;
	reactance 1.81;
}

object transformer_configuration {
	name Xfrm_config_PV_L_42477_B;
	connect_type SINGLE_PHASE_CENTER_TAPPED;
	install_type POLETOP;
	power_rating 10000;
	primary_voltage 2400;
	secondary_voltage 120;
	resistance 0.09;
	reactance 1.81;
}

object transformer_configuration {
	name Xfrm_config_PV_L_67807_C;
	connect_type SINGLE_PHASE_CENTER_TAPPED;
	install_type POLETOP;
	power_rating 10000;
	primary_voltage 2400;
	secondary_voltage 120;
	resistance 0.09;
	reactance 1.81;
}

object transformer_configuration {
	name Xfrm_config_PV_L_67807_B;
	connect_type SINGLE_PHASE_CENTER_TAPPED;
	install_type POLETOP;
	power_rating 10000;
	primary_voltage 2400;
	secondary_voltage 120;
	resistance 0.09;
	reactance 1.81;
}

object transformer_configuration {
	name Xfrm_config_PV_L_67807_A;
	connect_type SINGLE_PHASE_CENTER_TAPPED;
	install_type POLETOP;
	power_rating 10000;
	primary_voltage 2400;
	secondary_voltage 120;
	resistance 0.09;
	reactance 1.81;
}

object transformer_configuration {
	name Xfrm_config_PV_L_127741_A;
	connect_type SINGLE_PHASE_CENTER_TAPPED;
	install_type POLETOP;
	power_rating 10000;
	primary_voltage 2400;
	secondary_voltage 120;
	resistance 0.09;
	reactance 1.81;
}

object transformer_configuration {
	name Xfrm_config_PV_L_127741_B;
	connect_type SINGLE_PHASE_CENTER_TAPPED;
	install_type POLETOP;
	power_rating 10000;
	primary_voltage 2400;
	secondary_voltage 120;
	resistance 0.09;
	reactance 1.81;
}

object transformer_configuration {
	name Xfrm_config_PV_L_127741_C;
	connect_type SINGLE_PHASE_CENTER_TAPPED;
	install_type POLETOP;
	power_rating 10000;
	primary_voltage 2400;
	secondary_voltage 120;
	resistance 0.09;
	reactance 1.81;
}

object transformer_configuration {
	name Xfrm_config_PV_L_32271_B;
	connect_type SINGLE_PHASE_CENTER_TAPPED;
	install_type POLETOP;
	power_rating 10000;
	primary_voltage 2400;
	secondary_voltage 120;
	resistance 0.09;
	reactance 1.81;
}

object transformer_configuration {
	name Xfrm_config_PV_L_32271_C;
	connect_type SINGLE_PHASE_CENTER_TAPPED;
	install_type POLETOP;
	power_rating 10000;
	primary_voltage 2400;
	secondary_voltage 120;
	resistance 0.09;
	reactance 1.81;
}

object transformer_configuration {
	name Xfrm_config_PV_L_2289_A;
	connect_type SINGLE_PHASE_CENTER_TAPPED;
	install_type POLETOP;
	power_rating 10000;
	primary_voltage 2400;
	secondary_voltage 120;
	resistance 0.09;
	reactance 1.81;
}

object transformer_configuration {
	name Xfrm_config_PV_L_2289_C;
	connect_type SINGLE_PHASE_CENTER_TAPPED;
	install_type POLETOP;
	power_rating 10000;
	primary_voltage 2400;
	secondary_voltage 120;
	resistance 0.09;
	reactance 1.81;
}

object transformer_configuration {
	name Xfrm_config_PV_L_65581_B;
	connect_type SINGLE_PHASE_CENTER_TAPPED;
	install_type POLETOP;
	power_rating 10000;
	primary_voltage 2400;
	secondary_voltage 120;
	resistance 0.09;
	reactance 1.81;
}

object transformer_configuration {
	name Xfrm_config_PV_L_92702_A;
	connect_type SINGLE_PHASE_CENTER_TAPPED;
	install_type POLETOP;
	power_rating 10000;
	primary_voltage 2400;
	secondary_voltage 120;
	resistance 0.09;
	reactance 1.81;
}

object transformer_configuration {
	name Xfrm_config_PV_L_65581_A;
	connect_type SINGLE_PHASE_CENTER_TAPPED;
	install_type POLETOP;
	power_rating 10000;
	primary_voltage 2400;
	secondary_voltage 120;
	resistance 0.09;
	reactance 1.81;
}

object transformer_configuration {
	name Xfrm_config_PV_L_51887_A;
	connect_type SINGLE_PHASE_CENTER_TAPPED;
	install_type POLETOP;
	power_rating 10000;
	primary_voltage 2400;
	secondary_voltage 120;
	resistance 0.09;
	reactance 1.81;
}

object transformer_configuration {
	name Xfrm_config_PV_L_92702_C;
	connect_type SINGLE_PHASE_CENTER_TAPPED;
	install_type POLETOP;
	power_rating 10000;
	primary_voltage 2400;
	secondary_voltage 120;
	resistance 0.09;
	reactance 1.81;
}

object transformer_configuration {
	name Xfrm_config_PV_L_92702_B;
	connect_type SINGLE_PHASE_CENTER_TAPPED;
	install_type POLETOP;
	power_rating 10000;
	primary_voltage 2400;
	secondary_voltage 120;
	resistance 0.09;
	reactance 1.81;
}

object transformer_configuration {
	name Xfrm_config_PV_L_127485_C;
	connect_type SINGLE_PHASE_CENTER_TAPPED;
	install_type POLETOP;
	power_rating 10000;
	primary_voltage 2400;
	secondary_voltage 120;
	resistance 0.09;
	reactance 1.81;
}

object transformer_configuration {
	name Xfrm_config_PV_L_81008_A;
	connect_type SINGLE_PHASE_CENTER_TAPPED;
	install_type POLETOP;
	power_rating 10000;
	primary_voltage 2400;
	secondary_voltage 120;
	resistance 0.09;
	reactance 1.81;
}

object transformer_configuration {
	name Xfrm_config_PV_L_81008_B;
	connect_type SINGLE_PHASE_CENTER_TAPPED;
	install_type POLETOP;
	power_rating 10000;
	primary_voltage 2400;
	secondary_voltage 120;
	resistance 0.09;
	reactance 1.81;
}

object transformer_configuration {
	name Xfrm_config_PV_L_127485_B;
	connect_type SINGLE_PHASE_CENTER_TAPPED;
	install_type POLETOP;
	power_rating 10000;
	primary_voltage 2400;
	secondary_voltage 120;
	resistance 0.09;
	reactance 1.81;
}

object transformer_configuration {
	name Xfrm_config_PV_L_11280_C;
	connect_type SINGLE_PHASE_CENTER_TAPPED;
	install_type POLETOP;
	power_rating 10000;
	primary_voltage 2400;
	secondary_voltage 120;
	resistance 0.09;
	reactance 1.81;
}

object transformer_configuration {
	name Xfrm_config_PV_L_11280_B;
	connect_type SINGLE_PHASE_CENTER_TAPPED;
	install_type POLETOP;
	power_rating 10000;
	primary_voltage 2400;
	secondary_voltage 120;
	resistance 0.09;
	reactance 1.81;
}

object transformer_configuration {
	name Xfrm_config_PV_L_11280_A;
	connect_type SINGLE_PHASE_CENTER_TAPPED;
	install_type POLETOP;
	power_rating 10000;
	primary_voltage 2400;
	secondary_voltage 120;
	resistance 0.09;
	reactance 1.81;
}

object transformer_configuration {
	name Xfrm_config_PV_L_96549_A;
	connect_type SINGLE_PHASE_CENTER_TAPPED;
	install_type POLETOP;
	power_rating 10000;
	primary_voltage 2400;
	secondary_voltage 120;
	resistance 0.09;
	reactance 1.81;
}

object transformer_configuration {
	name Xfrm_config_PV_L_96549_B;
	connect_type SINGLE_PHASE_CENTER_TAPPED;
	install_type POLETOP;
	power_rating 10000;
	primary_voltage 2400;
	secondary_voltage 120;
	resistance 0.09;
	reactance 1.81;
}

object transformer_configuration {
	name Xfrm_config_PV_L_96549_C;
	connect_type SINGLE_PHASE_CENTER_TAPPED;
	install_type POLETOP;
	power_rating 10000;
	primary_voltage 2400;
	secondary_voltage 120;
	resistance 0.09;
	reactance 1.81;
}

object transformer_configuration {
	name Xfrm_config_PV_L_144774_C;
	connect_type SINGLE_PHASE_CENTER_TAPPED;
	install_type POLETOP;
	power_rating 10000;
	primary_voltage 2400;
	secondary_voltage 120;
	resistance 0.09;
	reactance 1.81;
}

object transformer_configuration {
	name Xfrm_config_PV_L_6625_B;
	connect_type SINGLE_PHASE_CENTER_TAPPED;
	install_type POLETOP;
	power_rating 10000;
	primary_voltage 2400;
	secondary_voltage 120;
	resistance 0.09;
	reactance 1.81;
}

object transformer_configuration {
	name Xfrm_config_PV_L_144774_A;
	connect_type SINGLE_PHASE_CENTER_TAPPED;
	install_type POLETOP;
	power_rating 10000;
	primary_voltage 2400;
	secondary_voltage 120;
	resistance 0.09;
	reactance 1.81;
}

object transformer_configuration {
	name Xfrm_config_PV_L_75809_B;
	connect_type SINGLE_PHASE_CENTER_TAPPED;
	install_type POLETOP;
	power_rating 10000;
	primary_voltage 2400;
	secondary_voltage 120;
	resistance 0.09;
	reactance 1.81;
}

object transformer_configuration {
	name Xfrm_config_PV_L_75809_C;
	connect_type SINGLE_PHASE_CENTER_TAPPED;
	install_type POLETOP;
	power_rating 10000;
	primary_voltage 2400;
	secondary_voltage 120;
	resistance 0.09;
	reactance 1.81;
}

object transformer_configuration {
	name Xfrm_config_PV_L_75809_A;
	connect_type SINGLE_PHASE_CENTER_TAPPED;
	install_type POLETOP;
	power_rating 10000;
	primary_voltage 2400;
	secondary_voltage 120;
	resistance 0.09;
	reactance 1.81;
}

object transformer_configuration {
	name Xfrm_config_PV_L_21316_A;
	connect_type SINGLE_PHASE_CENTER_TAPPED;
	install_type POLETOP;
	power_rating 10000;
	primary_voltage 2400;
	secondary_voltage 120;
	resistance 0.09;
	reactance 1.81;
}

object transformer_configuration {
	name Xfrm_config_PV_L_21316_B;
	connect_type SINGLE_PHASE_CENTER_TAPPED;
	install_type POLETOP;
	power_rating 10000;
	primary_voltage 2400;
	secondary_voltage 120;
	resistance 0.09;
	reactance 1.81;
}

object transformer_configuration {
	name Xfrm_config_PV_L_21316_C;
	connect_type SINGLE_PHASE_CENTER_TAPPED;
	install_type POLETOP;
	power_rating 10000;
	primary_voltage 2400;
	secondary_voltage 120;
	resistance 0.09;
	reactance 1.81;
}

object transformer_configuration {
	name Xfrm_config_PV_L_22077_A;
	connect_type SINGLE_PHASE_CENTER_TAPPED;
	install_type POLETOP;
	power_rating 10000;
	primary_voltage 2400;
	secondary_voltage 120;
	resistance 0.09;
	reactance 1.81;
}

object transformer_configuration {
	name Xfrm_config_PV_L_22077_B;
	connect_type SINGLE_PHASE_CENTER_TAPPED;
	install_type POLETOP;
	power_rating 10000;
	primary_voltage 2400;
	secondary_voltage 120;
	resistance 0.09;
	reactance 1.81;
}

object transformer_configuration {
	name Xfrm_config_PV_L_96284_B;
	connect_type SINGLE_PHASE_CENTER_TAPPED;
	install_type POLETOP;
	power_rating 10000;
	primary_voltage 2400;
	secondary_voltage 120;
	resistance 0.09;
	reactance 1.81;
}

object transformer_configuration {
	name Xfrm_config_PV_L_81996_A;
	connect_type SINGLE_PHASE_CENTER_TAPPED;
	install_type POLETOP;
	power_rating 10000;
	primary_voltage 2400;
	secondary_voltage 120;
	resistance 0.09;
	reactance 1.81;
}

object transformer_configuration {
	name Xfrm_config_PV_L_142715_B;
	connect_type SINGLE_PHASE_CENTER_TAPPED;
	install_type POLETOP;
	power_rating 10000;
	primary_voltage 2400;
	secondary_voltage 120;
	resistance 0.09;
	reactance 1.81;
}

object transformer_configuration {
	name Xfrm_config_PV_L_6625_C;
	connect_type SINGLE_PHASE_CENTER_TAPPED;
	install_type POLETOP;
	power_rating 10000;
	primary_voltage 2400;
	secondary_voltage 120;
	resistance 0.09;
	reactance 1.81;
}

object transformer_configuration {
	name Xfrm_config_PV_L_52586_A;
	connect_type SINGLE_PHASE_CENTER_TAPPED;
	install_type POLETOP;
	power_rating 10000;
	primary_voltage 2400;
	secondary_voltage 120;
	resistance 0.09;
	reactance 1.81;
}

object transformer_configuration {
	name Xfrm_config_PV_L_64975_C;
	connect_type SINGLE_PHASE_CENTER_TAPPED;
	install_type POLETOP;
	power_rating 10000;
	primary_voltage 2400;
	secondary_voltage 120;
	resistance 0.09;
	reactance 1.81;
}

object transformer_configuration {
	name Xfrm_config_PV_L_6625_A;
	connect_type SINGLE_PHASE_CENTER_TAPPED;
	install_type POLETOP;
	power_rating 10000;
	primary_voltage 2400;
	secondary_voltage 120;
	resistance 0.09;
	reactance 1.81;
}

object transformer_configuration {
	name Xfrm_config_PV_L_91793_B;
	connect_type SINGLE_PHASE_CENTER_TAPPED;
	install_type POLETOP;
	power_rating 10000;
	primary_voltage 2400;
	secondary_voltage 120;
	resistance 0.09;
	reactance 1.81;
}

object transformer_configuration {
	name Xfrm_config_PV_L_91793_C;
	connect_type SINGLE_PHASE_CENTER_TAPPED;
	install_type POLETOP;
	power_rating 10000;
	primary_voltage 2400;
	secondary_voltage 120;
	resistance 0.09;
	reactance 1.81;
}

object transformer_configuration {
	name Xfrm_config_PV_L_91793_A;
	connect_type SINGLE_PHASE_CENTER_TAPPED;
	install_type POLETOP;
	power_rating 10000;
	primary_voltage 2400;
	secondary_voltage 120;
	resistance 0.09;
	reactance 1.81;
}

object transformer_configuration {
	name Xfrm_config_PV_L_93413_C;
	connect_type SINGLE_PHASE_CENTER_TAPPED;
	install_type POLETOP;
	power_rating 10000;
	primary_voltage 2400;
	secondary_voltage 120;
	resistance 0.09;
	reactance 1.81;
}

object transformer_configuration {
	name Xfrm_config_PV_L_93413_B;
	connect_type SINGLE_PHASE_CENTER_TAPPED;
	install_type POLETOP;
	power_rating 10000;
	primary_voltage 2400;
	secondary_voltage 120;
	resistance 0.09;
	reactance 1.81;
}

object transformer_configuration {
	name Xfrm_config_PV_L_93413_A;
	connect_type SINGLE_PHASE_CENTER_TAPPED;
	install_type POLETOP;
	power_rating 10000;
	primary_voltage 2400;
	secondary_voltage 120;
	resistance 0.09;
	reactance 1.81;
}

object transformer_configuration {
	name Xfrm_config_PV_L_229_B;
	connect_type SINGLE_PHASE_CENTER_TAPPED;
	install_type POLETOP;
	power_rating 10000;
	primary_voltage 2400;
	secondary_voltage 120;
	resistance 0.09;
	reactance 1.81;
}

object transformer_configuration {
	name Xfrm_config_PV_L_229_C;
	connect_type SINGLE_PHASE_CENTER_TAPPED;
	install_type POLETOP;
	power_rating 10000;
	primary_voltage 2400;
	secondary_voltage 120;
	resistance 0.09;
	reactance 1.81;
}

object transformer_configuration {
	name Xfrm_config_PV_L_64975_A;
	connect_type SINGLE_PHASE_CENTER_TAPPED;
	install_type POLETOP;
	power_rating 10000;
	primary_voltage 2400;
	secondary_voltage 120;
	resistance 0.09;
	reactance 1.81;
}

object transformer_configuration {
	name Xfrm_config_PV_L_81996_B;
	connect_type SINGLE_PHASE_CENTER_TAPPED;
	install_type POLETOP;
	power_rating 10000;
	primary_voltage 2400;
	secondary_voltage 120;
	resistance 0.09;
	reactance 1.81;
}

object transformer_configuration {
	name Xfrm_config_PV_L_81996_C;
	connect_type SINGLE_PHASE_CENTER_TAPPED;
	install_type POLETOP;
	power_rating 10000;
	primary_voltage 2400;
	secondary_voltage 120;
	resistance 0.09;
	reactance 1.81;
}

object transformer_configuration {
	name Xfrm_config_PV_L_22666_A;
	connect_type SINGLE_PHASE_CENTER_TAPPED;
	install_type POLETOP;
	power_rating 10000;
	primary_voltage 2400;
	secondary_voltage 120;
	resistance 0.09;
	reactance 1.81;
}

object transformer_configuration {
	name Xfrm_config_PV_L_22666_B;
	connect_type SINGLE_PHASE_CENTER_TAPPED;
	install_type POLETOP;
	power_rating 10000;
	primary_voltage 2400;
	secondary_voltage 120;
	resistance 0.09;
	reactance 1.81;
}

object transformer_configuration {
	name Xfrm_config_PV_L_124883_A;
	connect_type SINGLE_PHASE_CENTER_TAPPED;
	install_type POLETOP;
	power_rating 10000;
	primary_voltage 2400;
	secondary_voltage 120;
	resistance 0.09;
	reactance 1.81;
}

object transformer_configuration {
	name Xfrm_config_PV_L_124883_B;
	connect_type SINGLE_PHASE_CENTER_TAPPED;
	install_type POLETOP;
	power_rating 10000;
	primary_voltage 2400;
	secondary_voltage 120;
	resistance 0.09;
	reactance 1.81;
}

object transformer_configuration {
	name Xfrm_config_PV_L_124883_C;
	connect_type SINGLE_PHASE_CENTER_TAPPED;
	install_type POLETOP;
	power_rating 10000;
	primary_voltage 2400;
	secondary_voltage 120;
	resistance 0.09;
	reactance 1.81;
}

object transformer_configuration {
	name Xfrm_config_PV_L_114742_C;
	connect_type SINGLE_PHASE_CENTER_TAPPED;
	install_type POLETOP;
	power_rating 10000;
	primary_voltage 2400;
	secondary_voltage 120;
	resistance 0.09;
	reactance 1.81;
}

object transformer_configuration {
	name Xfrm_config_PV_L_114742_B;
	connect_type SINGLE_PHASE_CENTER_TAPPED;
	install_type POLETOP;
	power_rating 10000;
	primary_voltage 2400;
	secondary_voltage 120;
	resistance 0.09;
	reactance 1.81;
}

object transformer_configuration {
	name Xfrm_config_PV_L_39263_A;
	connect_type SINGLE_PHASE_CENTER_TAPPED;
	install_type POLETOP;
	power_rating 10000;
	primary_voltage 2400;
	secondary_voltage 120;
	resistance 0.09;
	reactance 1.81;
}

object transformer_configuration {
	name Xfrm_config_PV_L_39263_B;
	connect_type SINGLE_PHASE_CENTER_TAPPED;
	install_type POLETOP;
	power_rating 10000;
	primary_voltage 2400;
	secondary_voltage 120;
	resistance 0.09;
	reactance 1.81;
}

object transformer_configuration {
	name Xfrm_config_PV_L_39263_C;
	connect_type SINGLE_PHASE_CENTER_TAPPED;
	install_type POLETOP;
	power_rating 10000;
	primary_voltage 2400;
	secondary_voltage 120;
	resistance 0.09;
	reactance 1.81;
}

object transformer_configuration {
	name Xfrm_config_PV_L_125183_C;
	connect_type SINGLE_PHASE_CENTER_TAPPED;
	install_type POLETOP;
	power_rating 10000;
	primary_voltage 2400;
	secondary_voltage 120;
	resistance 0.09;
	reactance 1.81;
}

object transformer_configuration {
	name Xfrm_config_PV_L_125183_A;
	connect_type SINGLE_PHASE_CENTER_TAPPED;
	install_type POLETOP;
	power_rating 10000;
	primary_voltage 2400;
	secondary_voltage 120;
	resistance 0.09;
	reactance 1.81;
}

object transformer_configuration {
	name Xfrm_config_PV_L_54986_A;
	connect_type SINGLE_PHASE_CENTER_TAPPED;
	install_type POLETOP;
	power_rating 10000;
	primary_voltage 2400;
	secondary_voltage 120;
	resistance 0.09;
	reactance 1.81;
}

object transformer_configuration {
	name Xfrm_config_PV_L_51887_C;
	connect_type SINGLE_PHASE_CENTER_TAPPED;
	install_type POLETOP;
	power_rating 10000;
	primary_voltage 2400;
	secondary_voltage 120;
	resistance 0.09;
	reactance 1.81;
}

object transformer_configuration {
	name Xfrm_config_PV_L_22666_C;
	connect_type SINGLE_PHASE_CENTER_TAPPED;
	install_type POLETOP;
	power_rating 10000;
	primary_voltage 2400;
	secondary_voltage 120;
	resistance 0.09;
	reactance 1.81;
}

object transformer_configuration {
	name Xfrm_config_PV_L_54986_B;
	connect_type SINGLE_PHASE_CENTER_TAPPED;
	install_type POLETOP;
	power_rating 10000;
	primary_voltage 2400;
	secondary_voltage 120;
	resistance 0.09;
	reactance 1.81;
}

object transformer_configuration {
	name Xfrm_config_PV_L_33367_C;
	connect_type SINGLE_PHASE_CENTER_TAPPED;
	install_type POLETOP;
	power_rating 10000;
	primary_voltage 2400;
	secondary_voltage 120;
	resistance 0.09;
	reactance 1.81;
}

object transformer_configuration {
	name Xfrm_config_PV_L_33367_B;
	connect_type SINGLE_PHASE_CENTER_TAPPED;
	install_type POLETOP;
	power_rating 10000;
	primary_voltage 2400;
	secondary_voltage 120;
	resistance 0.09;
	reactance 1.81;
}

object transformer_configuration {
	name Xfrm_config_PV_L_33367_A;
	connect_type SINGLE_PHASE_CENTER_TAPPED;
	install_type POLETOP;
	power_rating 10000;
	primary_voltage 2400;
	secondary_voltage 120;
	resistance 0.09;
	reactance 1.81;
}

object transformer_configuration {
	name Xfrm_config_PV_L_52586_B;
	connect_type SINGLE_PHASE_CENTER_TAPPED;
	install_type POLETOP;
	power_rating 10000;
	primary_voltage 2400;
	secondary_voltage 120;
	resistance 0.09;
	reactance 1.81;
}

object transformer_configuration {
	name Xfrm_config_PV_L_33252_B;
	connect_type SINGLE_PHASE_CENTER_TAPPED;
	install_type POLETOP;
	power_rating 10000;
	primary_voltage 2400;
	secondary_voltage 120;
	resistance 0.09;
	reactance 1.81;
}

object transformer_configuration {
	name Xfrm_config_PV_L_33252_C;
	connect_type SINGLE_PHASE_CENTER_TAPPED;
	install_type POLETOP;
	power_rating 10000;
	primary_voltage 2400;
	secondary_voltage 120;
	resistance 0.09;
	reactance 1.81;
}

object transformer_configuration {
	name Xfrm_config_PV_L_33252_A;
	connect_type SINGLE_PHASE_CENTER_TAPPED;
	install_type POLETOP;
	power_rating 10000;
	primary_voltage 2400;
	secondary_voltage 120;
	resistance 0.09;
	reactance 1.81;
}

object transformer_configuration {
	name Xfrm_config_PV_L_122711_A;
	connect_type SINGLE_PHASE_CENTER_TAPPED;
	install_type POLETOP;
	power_rating 10000;
	primary_voltage 2400;
	secondary_voltage 120;
	resistance 0.09;
	reactance 1.81;
}

object transformer_configuration {
	name Xfrm_config_PV_L_122711_B;
	connect_type SINGLE_PHASE_CENTER_TAPPED;
	install_type POLETOP;
	power_rating 10000;
	primary_voltage 2400;
	secondary_voltage 120;
	resistance 0.09;
	reactance 1.81;
}

object transformer_configuration {
	name Xfrm_config_PV_L_122711_C;
	connect_type SINGLE_PHASE_CENTER_TAPPED;
	install_type POLETOP;
	power_rating 10000;
	primary_voltage 2400;
	secondary_voltage 120;
	resistance 0.09;
	reactance 1.81;
}

object transformer_configuration {
	name Xfrm_config_PV_L_78136_B;
	connect_type SINGLE_PHASE_CENTER_TAPPED;
	install_type POLETOP;
	power_rating 10000;
	primary_voltage 2400;
	secondary_voltage 120;
	resistance 0.09;
	reactance 1.81;
}

object transformer_configuration {
	name Xfrm_config_PV_L_78136_C;
	connect_type SINGLE_PHASE_CENTER_TAPPED;
	install_type POLETOP;
	power_rating 10000;
	primary_voltage 2400;
	secondary_voltage 120;
	resistance 0.09;
	reactance 1.81;
}

object transformer_configuration {
	name Xfrm_config_PV_L_127485_A;
	connect_type SINGLE_PHASE_CENTER_TAPPED;
	install_type POLETOP;
	power_rating 10000;
	primary_voltage 2400;
	secondary_voltage 120;
	resistance 0.09;
	reactance 1.81;
}

object transformer_configuration {
	name Xfrm_config_PV_L_78136_A;
	connect_type SINGLE_PHASE_CENTER_TAPPED;
	install_type POLETOP;
	power_rating 10000;
	primary_voltage 2400;
	secondary_voltage 120;
	resistance 0.09;
	reactance 1.81;
}

object transformer_configuration {
	name Xfrm_config_PV_L_109171_C;
	connect_type SINGLE_PHASE_CENTER_TAPPED;
	install_type POLETOP;
	power_rating 10000;
	primary_voltage 2400;
	secondary_voltage 120;
	resistance 0.09;
	reactance 1.81;
}

object transformer_configuration {
	name Xfrm_config_PV_L_109171_A;
	connect_type SINGLE_PHASE_CENTER_TAPPED;
	install_type POLETOP;
	power_rating 10000;
	primary_voltage 2400;
	secondary_voltage 120;
	resistance 0.09;
	reactance 1.81;
}

object transformer_configuration {
	name Xfrm_config_PV_L_96284_A;
	connect_type SINGLE_PHASE_CENTER_TAPPED;
	install_type POLETOP;
	power_rating 10000;
	primary_voltage 2400;
	secondary_voltage 120;
	resistance 0.09;
	reactance 1.81;
}

object transformer_configuration {
	name Xfrm_config_PV_L_52586_C;
	connect_type SINGLE_PHASE_CENTER_TAPPED;
	install_type POLETOP;
	power_rating 10000;
	primary_voltage 2400;
	secondary_voltage 120;
	resistance 0.09;
	reactance 1.81;
}

object transformer_configuration {
	name Xfrm_config_PV_L_142715_C;
	connect_type SINGLE_PHASE_CENTER_TAPPED;
	install_type POLETOP;
	power_rating 10000;
	primary_voltage 2400;
	secondary_voltage 120;
	resistance 0.09;
	reactance 1.81;
}

object transformer_configuration {
	name Xfrm_config_PV_L_71144_B;
	connect_type SINGLE_PHASE_CENTER_TAPPED;
	install_type POLETOP;
	power_rating 10000;
	primary_voltage 2400;
	secondary_voltage 120;
	resistance 0.09;
	reactance 1.81;
}

object transformer_configuration {
	name Xfrm_config_PV_L_71144_C;
	connect_type SINGLE_PHASE_CENTER_TAPPED;
	install_type POLETOP;
	power_rating 10000;
	primary_voltage 2400;
	secondary_voltage 120;
	resistance 0.09;
	reactance 1.81;
}

object transformer_configuration {
	name Xfrm_config_PV_L_82854_B;
	connect_type SINGLE_PHASE_CENTER_TAPPED;
	install_type POLETOP;
	power_rating 10000;
	primary_voltage 2400;
	secondary_voltage 120;
	resistance 0.09;
	reactance 1.81;
}

object transformer_configuration {
	name Xfrm_config_PV_L_82854_C;
	connect_type SINGLE_PHASE_CENTER_TAPPED;
	install_type POLETOP;
	power_rating 10000;
	primary_voltage 2400;
	secondary_voltage 120;
	resistance 0.09;
	reactance 1.81;
}

object transformer_configuration {
	name Xfrm_config_PV_L_82854_A;
	connect_type SINGLE_PHASE_CENTER_TAPPED;
	install_type POLETOP;
	power_rating 10000;
	primary_voltage 2400;
	secondary_voltage 120;
	resistance 0.09;
	reactance 1.81;
}

object transformer_configuration {
	name Xfrm_config_PV_L_38426_B;
	connect_type SINGLE_PHASE_CENTER_TAPPED;
	install_type POLETOP;
	power_rating 10000;
	primary_voltage 2400;
	secondary_voltage 120;
	resistance 0.09;
	reactance 1.81;
}

object transformer_configuration {
	name Xfrm_config_PV_L_38426_C;
	connect_type SINGLE_PHASE_CENTER_TAPPED;
	install_type POLETOP;
	power_rating 10000;
	primary_voltage 2400;
	secondary_voltage 120;
	resistance 0.09;
	reactance 1.81;
}

object transformer_configuration {
	name Xfrm_config_PV_L_51888_A;
	connect_type SINGLE_PHASE_CENTER_TAPPED;
	install_type POLETOP;
	power_rating 10000;
	primary_voltage 2400;
	secondary_voltage 120;
	resistance 0.09;
	reactance 1.81;
}

object transformer_configuration {
	name Xfrm_config_PV_L_51888_C;
	connect_type SINGLE_PHASE_CENTER_TAPPED;
	install_type POLETOP;
	power_rating 10000;
	primary_voltage 2400;
	secondary_voltage 120;
	resistance 0.09;
	reactance 1.81;
}

object transformer_configuration {
	name Xfrm_config_PV_L_51888_B;
	connect_type SINGLE_PHASE_CENTER_TAPPED;
	install_type POLETOP;
	power_rating 10000;
	primary_voltage 2400;
	secondary_voltage 120;
	resistance 0.09;
	reactance 1.81;
}

//*********************************************
// Transformer Objects
//*********************************************
object transformer {
	name Xfrm_L_79098_A;
	phases AS;
	from N_300062060;
	to N_L_79098_sec_A;
	configuration Xfrm_config_PV_L_79098_A;
}

object transformer {
	name Xfrm_L_79098_B;
	phases BS;
	from N_300062060;
	to N_L_79098_sec_B;
	configuration Xfrm_config_PV_L_79098_B;
}

object transformer {
	name Xfrm_L_79098_C;
	phases CS;
	from N_300062060;
	to N_L_79098_sec_C;
	configuration Xfrm_config_PV_L_79098_C;
}

object transformer {
	name Xfrm_L_51887_B;
	phases BS;
	from N_300062298;
	to N_L_51887_sec_B;
	configuration Xfrm_config_PV_L_51887_B;
}

object transformer {
	name Xfrm_L_42477_C;
	phases CS;
	from N_300062321;
	to N_L_42477_sec_C;
	configuration Xfrm_config_PV_L_42477_C;
}

object transformer {
	name Xfrm_L_42477_B;
	phases BS;
	from N_300062321;
	to N_L_42477_sec_B;
	configuration Xfrm_config_PV_L_42477_B;
}

object transformer {
	name Xfrm_L_67807_C;
	phases CS;
	from N_300062054;
	to N_L_67807_sec_C;
	configuration Xfrm_config_PV_L_67807_C;
}

object transformer {
	name Xfrm_L_67807_B;
	phases BS;
	from N_300062054;
	to N_L_67807_sec_B;
	configuration Xfrm_config_PV_L_67807_B;
}

object transformer {
	name Xfrm_L_67807_A;
	phases AS;
	from N_300062054;
	to N_L_67807_sec_A;
	configuration Xfrm_config_PV_L_67807_A;
}

object transformer {
	name Xfrm_L_127741_A;
	phases AS;
	from N_300062369;
	to N_L_127741_sec_A;
	configuration Xfrm_config_PV_L_127741_A;
}

object transformer {
	name Xfrm_L_127741_B;
	phases BS;
	from N_300062369;
	to N_L_127741_sec_B;
	configuration Xfrm_config_PV_L_127741_B;
}

object transformer {
	name Xfrm_L_127741_C;
	phases CS;
	from N_300062369;
	to N_L_127741_sec_C;
	configuration Xfrm_config_PV_L_127741_C;
}

object transformer {
	name Xfrm_L_32271_B;
	phases BS;
	from N_300062385;
	to N_L_32271_sec_B;
	configuration Xfrm_config_PV_L_32271_B;
}

object transformer {
	name Xfrm_L_32271_C;
	phases CS;
	from N_300062385;
	to N_L_32271_sec_C;
	configuration Xfrm_config_PV_L_32271_C;
}

object transformer {
	name Xfrm_L_2289_A;
	phases AS;
	from N_300062071;
	to N_L_2289_sec_A;
	configuration Xfrm_config_PV_L_2289_A;
}

object transformer {
	name Xfrm_L_2289_C;
	phases CS;
	from N_300062071;
	to N_L_2289_sec_C;
	configuration Xfrm_config_PV_L_2289_C;
}

object transformer {
	name Xfrm_L_65581_B;
	phases BS;
	from N_300062336;
	to N_L_65581_sec_B;
	configuration Xfrm_config_PV_L_65581_B;
}

object transformer {
	name Xfrm_L_92702_A;
	phases AS;
	from N_300017937;
	to N_L_92702_sec_A;
	configuration Xfrm_config_PV_L_92702_A;
}

object transformer {
	name Xfrm_L_65581_A;
	phases AS;
	from N_300062336;
	to N_L_65581_sec_A;
	configuration Xfrm_config_PV_L_65581_A;
}

object transformer {
	name Xfrm_L_51887_A;
	phases AS;
	from N_300062298;
	to N_L_51887_sec_A;
	configuration Xfrm_config_PV_L_51887_A;
}

object transformer {
	name Xfrm_L_92702_C;
	phases CS;
	from N_300017937;
	to N_L_92702_sec_C;
	configuration Xfrm_config_PV_L_92702_C;
}

object transformer {
	name Xfrm_L_92702_B;
	phases BS;
	from N_300017937;
	to N_L_92702_sec_B;
	configuration Xfrm_config_PV_L_92702_B;
}

object transformer {
	name Xfrm_L_127485_C;
	phases CS;
	from N_300020686;
	to N_L_127485_sec_C;
	configuration Xfrm_config_PV_L_127485_C;
}

object transformer {
	name Xfrm_L_81008_A;
	phases AS;
	from N_300062353;
	to N_L_81008_sec_A;
	configuration Xfrm_config_PV_L_81008_A;
}

object transformer {
	name Xfrm_L_81008_B;
	phases BS;
	from N_300062353;
	to N_L_81008_sec_B;
	configuration Xfrm_config_PV_L_81008_B;
}

object transformer {
	name Xfrm_L_127485_B;
	phases BS;
	from N_300020686;
	to N_L_127485_sec_B;
	configuration Xfrm_config_PV_L_127485_B;
}

object transformer {
	name Xfrm_L_11280_C;
	phases CS;
	from N_300063917;
	to N_L_11280_sec_C;
	configuration Xfrm_config_PV_L_11280_C;
}

object transformer {
	name Xfrm_L_11280_B;
	phases BS;
	from N_300063917;
	to N_L_11280_sec_B;
	configuration Xfrm_config_PV_L_11280_B;
}

object transformer {
	name Xfrm_L_11280_A;
	phases AS;
	from N_300063917;
	to N_L_11280_sec_A;
	configuration Xfrm_config_PV_L_11280_A;
}

object transformer {
	name Xfrm_L_96549_A;
	phases AS;
	from N_300062059;
	to N_L_96549_sec_A;
	configuration Xfrm_config_PV_L_96549_A;
}

object transformer {
	name Xfrm_L_96549_B;
	phases BS;
	from N_300062059;
	to N_L_96549_sec_B;
	configuration Xfrm_config_PV_L_96549_B;
}

object transformer {
	name Xfrm_L_96549_C;
	phases CS;
	from N_300062059;
	to N_L_96549_sec_C;
	configuration Xfrm_config_PV_L_96549_C;
}

object transformer {
	name Xfrm_L_144774_C;
	phases CS;
	from N_300062067;
	to N_L_144774_sec_C;
	configuration Xfrm_config_PV_L_144774_C;
}

object transformer {
	name Xfrm_L_6625_B;
	phases BS;
	from N_300062377;
	to N_L_6625_sec_B;
	configuration Xfrm_config_PV_L_6625_B;
}

object transformer {
	name Xfrm_L_144774_A;
	phases AS;
	from N_300062067;
	to N_L_144774_sec_A;
	configuration Xfrm_config_PV_L_144774_A;
}

object transformer {
	name Xfrm_L_75809_B;
	phases BS;
	from N_300062059;
	to N_L_75809_sec_B;
	configuration Xfrm_config_PV_L_75809_B;
}

object transformer {
	name Xfrm_L_75809_C;
	phases CS;
	from N_300062059;
	to N_L_75809_sec_C;
	configuration Xfrm_config_PV_L_75809_C;
}

object transformer {
	name Xfrm_L_75809_A;
	phases AS;
	from N_300062059;
	to N_L_75809_sec_A;
	configuration Xfrm_config_PV_L_75809_A;
}

object transformer {
	name Xfrm_L_21316_A;
	phases AS;
	from N_300062062;
	to N_L_21316_sec_A;
	configuration Xfrm_config_PV_L_21316_A;
}

object transformer {
	name Xfrm_L_21316_B;
	phases BS;
	from N_300062062;
	to N_L_21316_sec_B;
	configuration Xfrm_config_PV_L_21316_B;
}

object transformer {
	name Xfrm_L_21316_C;
	phases CS;
	from N_300062062;
	to N_L_21316_sec_C;
	configuration Xfrm_config_PV_L_21316_C;
}

object transformer {
	name Xfrm_L_22077_A;
	phases AS;
	from N_300062332;
	to N_L_22077_sec_A;
	configuration Xfrm_config_PV_L_22077_A;
}

object transformer {
	name Xfrm_L_22077_B;
	phases BS;
	from N_300062332;
	to N_L_22077_sec_B;
	configuration Xfrm_config_PV_L_22077_B;
}

object transformer {
	name Xfrm_L_96284_B;
	phases BS;
	from N_300062348;
	to N_L_96284_sec_B;
	configuration Xfrm_config_PV_L_96284_B;
}

object transformer {
	name Xfrm_L_81996_A;
	phases AS;
	from N_300017937;
	to N_L_81996_sec_A;
	configuration Xfrm_config_PV_L_81996_A;
}

object transformer {
	name Xfrm_L_142715_B;
	phases BS;
	from N_300062378;
	to N_L_142715_sec_B;
	configuration Xfrm_config_PV_L_142715_B;
}

object transformer {
	name Xfrm_L_6625_C;
	phases CS;
	from N_300062377;
	to N_L_6625_sec_C;
	configuration Xfrm_config_PV_L_6625_C;
}

object transformer {
	name Xfrm_L_52586_A;
	phases AS;
	from N_300053280;
	to N_L_52586_sec_A;
	configuration Xfrm_config_PV_L_52586_A;
}

object transformer {
	name Xfrm_L_64975_C;
	phases CS;
	from N_300062067;
	to N_L_64975_sec_C;
	configuration Xfrm_config_PV_L_64975_C;
}

object transformer {
	name Xfrm_L_6625_A;
	phases AS;
	from N_300062377;
	to N_L_6625_sec_A;
	configuration Xfrm_config_PV_L_6625_A;
}

object transformer {
	name Xfrm_L_91793_B;
	phases BS;
	from N_300062505;
	to N_L_91793_sec_B;
	configuration Xfrm_config_PV_L_91793_B;
}

object transformer {
	name Xfrm_L_91793_C;
	phases CS;
	from N_300062505;
	to N_L_91793_sec_C;
	configuration Xfrm_config_PV_L_91793_C;
}

object transformer {
	name Xfrm_L_91793_A;
	phases AS;
	from N_300062505;
	to N_L_91793_sec_A;
	configuration Xfrm_config_PV_L_91793_A;
}

object transformer {
	name Xfrm_L_93413_C;
	phases CS;
	from N_300062302;
	to N_L_93413_sec_C;
	configuration Xfrm_config_PV_L_93413_C;
}

object transformer {
	name Xfrm_L_93413_B;
	phases BS;
	from N_300062302;
	to N_L_93413_sec_B;
	configuration Xfrm_config_PV_L_93413_B;
}

object transformer {
	name Xfrm_L_93413_A;
	phases AS;
	from N_300062302;
	to N_L_93413_sec_A;
	configuration Xfrm_config_PV_L_93413_A;
}

object transformer {
	name Xfrm_L_229_B;
	phases BS;
	from N_300062317;
	to N_L_229_sec_B;
	configuration Xfrm_config_PV_L_229_B;
}

object transformer {
	name Xfrm_L_229_C;
	phases CS;
	from N_300062317;
	to N_L_229_sec_C;
	configuration Xfrm_config_PV_L_229_C;
}

object transformer {
	name Xfrm_L_64975_A;
	phases AS;
	from N_300062067;
	to N_L_64975_sec_A;
	configuration Xfrm_config_PV_L_64975_A;
}

object transformer {
	name Xfrm_L_81996_B;
	phases BS;
	from N_300017937;
	to N_L_81996_sec_B;
	configuration Xfrm_config_PV_L_81996_B;
}

object transformer {
	name Xfrm_L_81996_C;
	phases CS;
	from N_300017937;
	to N_L_81996_sec_C;
	configuration Xfrm_config_PV_L_81996_C;
}

object transformer {
	name Xfrm_L_22666_A;
	phases AS;
	from N_300062298;
	to N_L_22666_sec_A;
	configuration Xfrm_config_PV_L_22666_A;
}

object transformer {
	name Xfrm_L_22666_B;
	phases BS;
	from N_300062298;
	to N_L_22666_sec_B;
	configuration Xfrm_config_PV_L_22666_B;
}

object transformer {
	name Xfrm_L_124883_A;
	phases AS;
	from N_300062505;
	to N_L_124883_sec_A;
	configuration Xfrm_config_PV_L_124883_A;
}

object transformer {
	name Xfrm_L_124883_B;
	phases BS;
	from N_300062505;
	to N_L_124883_sec_B;
	configuration Xfrm_config_PV_L_124883_B;
}

object transformer {
	name Xfrm_L_124883_C;
	phases CS;
	from N_300062505;
	to N_L_124883_sec_C;
	configuration Xfrm_config_PV_L_124883_C;
}

object transformer {
	name Xfrm_L_114742_C;
	phases CS;
	from N_300062385;
	to N_L_114742_sec_C;
	configuration Xfrm_config_PV_L_114742_C;
}

object transformer {
	name Xfrm_L_114742_B;
	phases BS;
	from N_300062385;
	to N_L_114742_sec_B;
	configuration Xfrm_config_PV_L_114742_B;
}

object transformer {
	name Xfrm_L_39263_A;
	phases AS;
	from N_300062298;
	to N_L_39263_sec_A;
	configuration Xfrm_config_PV_L_39263_A;
}

object transformer {
	name Xfrm_L_39263_B;
	phases BS;
	from N_300062298;
	to N_L_39263_sec_B;
	configuration Xfrm_config_PV_L_39263_B;
}

object transformer {
	name Xfrm_L_39263_C;
	phases CS;
	from N_300062298;
	to N_L_39263_sec_C;
	configuration Xfrm_config_PV_L_39263_C;
}

object transformer {
	name Xfrm_L_125183_C;
	phases CS;
	from N_300062071;
	to N_L_125183_sec_C;
	configuration Xfrm_config_PV_L_125183_C;
}

object transformer {
	name Xfrm_L_125183_A;
	phases AS;
	from N_300062071;
	to N_L_125183_sec_A;
	configuration Xfrm_config_PV_L_125183_A;
}

object transformer {
	name Xfrm_L_54986_A;
	phases AS;
	from N_300062349;
	to N_L_54986_sec_A;
	configuration Xfrm_config_PV_L_54986_A;
}

object transformer {
	name Xfrm_L_51887_C;
	phases CS;
	from N_300062298;
	to N_L_51887_sec_C;
	configuration Xfrm_config_PV_L_51887_C;
}

object transformer {
	name Xfrm_L_22666_C;
	phases CS;
	from N_300062298;
	to N_L_22666_sec_C;
	configuration Xfrm_config_PV_L_22666_C;
}

object transformer {
	name Xfrm_L_54986_B;
	phases BS;
	from N_300062349;
	to N_L_54986_sec_B;
	configuration Xfrm_config_PV_L_54986_B;
}

object transformer {
	name Xfrm_L_33367_C;
	phases CS;
	from N_300053280;
	to N_L_33367_sec_C;
	configuration Xfrm_config_PV_L_33367_C;
}

object transformer {
	name Xfrm_L_33367_B;
	phases BS;
	from N_300053280;
	to N_L_33367_sec_B;
	configuration Xfrm_config_PV_L_33367_B;
}

object transformer {
	name Xfrm_L_33367_A;
	phases AS;
	from N_300053280;
	to N_L_33367_sec_A;
	configuration Xfrm_config_PV_L_33367_A;
}

object transformer {
	name Xfrm_L_52586_B;
	phases BS;
	from N_300053280;
	to N_L_52586_sec_B;
	configuration Xfrm_config_PV_L_52586_B;
}

object transformer {
	name Xfrm_L_33252_B;
	phases BS;
	from N_300053285;
	to N_L_33252_sec_B;
	configuration Xfrm_config_PV_L_33252_B;
}

object transformer {
	name Xfrm_L_33252_C;
	phases CS;
	from N_300053285;
	to N_L_33252_sec_C;
	configuration Xfrm_config_PV_L_33252_C;
}

object transformer {
	name Xfrm_L_33252_A;
	phases AS;
	from N_300053285;
	to N_L_33252_sec_A;
	configuration Xfrm_config_PV_L_33252_A;
}

object transformer {
	name Xfrm_L_122711_A;
	phases AS;
	from N_300020686;
	to N_L_122711_sec_A;
	configuration Xfrm_config_PV_L_122711_A;
}

object transformer {
	name Xfrm_L_122711_B;
	phases BS;
	from N_300020686;
	to N_L_122711_sec_B;
	configuration Xfrm_config_PV_L_122711_B;
}

object transformer {
	name Xfrm_L_122711_C;
	phases CS;
	from N_300020686;
	to N_L_122711_sec_C;
	configuration Xfrm_config_PV_L_122711_C;
}

object transformer {
	name Xfrm_L_78136_B;
	phases BS;
	from N_300016715;
	to N_L_78136_sec_B;
	configuration Xfrm_config_PV_L_78136_B;
}

object transformer {
	name Xfrm_L_78136_C;
	phases CS;
	from N_300016715;
	to N_L_78136_sec_C;
	configuration Xfrm_config_PV_L_78136_C;
}

object transformer {
	name Xfrm_L_127485_A;
	phases AS;
	from N_300020686;
	to N_L_127485_sec_A;
	configuration Xfrm_config_PV_L_127485_A;
}

object transformer {
	name Xfrm_L_78136_A;
	phases AS;
	from N_300016715;
	to N_L_78136_sec_A;
	configuration Xfrm_config_PV_L_78136_A;
}

object transformer {
	name Xfrm_L_109171_C;
	phases CS;
	from N_300062071;
	to N_L_109171_sec_C;
	configuration Xfrm_config_PV_L_109171_C;
}

object transformer {
	name Xfrm_L_109171_A;
	phases AS;
	from N_300062071;
	to N_L_109171_sec_A;
	configuration Xfrm_config_PV_L_109171_A;
}

object transformer {
	name Xfrm_L_96284_A;
	phases AS;
	from N_300062348;
	to N_L_96284_sec_A;
	configuration Xfrm_config_PV_L_96284_A;
}

object transformer {
	name Xfrm_L_52586_C;
	phases CS;
	from N_300053280;
	to N_L_52586_sec_C;
	configuration Xfrm_config_PV_L_52586_C;
}

object transformer {
	name Xfrm_L_142715_C;
	phases CS;
	from N_300062378;
	to N_L_142715_sec_C;
	configuration Xfrm_config_PV_L_142715_C;
}

object transformer {
	name Xfrm_L_71144_B;
	phases BS;
	from N_300062379;
	to N_L_71144_sec_B;
	configuration Xfrm_config_PV_L_71144_B;
}

object transformer {
	name Xfrm_L_71144_C;
	phases CS;
	from N_300062379;
	to N_L_71144_sec_C;
	configuration Xfrm_config_PV_L_71144_C;
}

object transformer {
	name Xfrm_L_82854_B;
	phases BS;
	from N_300017937;
	to N_L_82854_sec_B;
	configuration Xfrm_config_PV_L_82854_B;
}

object transformer {
	name Xfrm_L_82854_C;
	phases CS;
	from N_300017937;
	to N_L_82854_sec_C;
	configuration Xfrm_config_PV_L_82854_C;
}

object transformer {
	name Xfrm_L_82854_A;
	phases AS;
	from N_300017937;
	to N_L_82854_sec_A;
	configuration Xfrm_config_PV_L_82854_A;
}

object transformer {
	name Xfrm_L_38426_B;
	phases BS;
	from N_300006691;
	to N_L_38426_sec_B;
	configuration Xfrm_config_PV_L_38426_B;
}

object transformer {
	name Xfrm_L_38426_C;
	phases CS;
	from N_300006691;
	to N_L_38426_sec_C;
	configuration Xfrm_config_PV_L_38426_C;
}

object transformer {
	name Xfrm_L_51888_A;
	phases AS;
	from N_300053283;
	to N_L_51888_sec_A;
	configuration Xfrm_config_PV_L_51888_A;
}

object transformer {
	name Xfrm_L_51888_C;
	phases CS;
	from N_300053283;
	to N_L_51888_sec_C;
	configuration Xfrm_config_PV_L_51888_C;
}

object transformer {
	name Xfrm_L_51888_B;
	phases BS;
	from N_300053283;
	to N_L_51888_sec_B;
	configuration Xfrm_config_PV_L_51888_B;
}

//*********************************************
// Triplex meter Objects
//*********************************************
object triplex_meter {
	name N_L_79098_sec_A;
	phases AS;
	nominal_voltage 120;
}

object triplex_meter {
	name N_L_79098_sec_B;
	phases BS;
	nominal_voltage 120;
}

object triplex_meter {
	name N_L_79098_sec_C;
	phases CS;
	nominal_voltage 120;
}

object triplex_meter {
	name N_L_51887_sec_B;
	phases BS;
	nominal_voltage 120;
}

object triplex_meter {
	name N_L_42477_sec_C;
	phases CS;
	nominal_voltage 120;
}

object triplex_meter {
	name N_L_42477_sec_B;
	phases BS;
	nominal_voltage 120;
}

object triplex_meter {
	name N_L_67807_sec_C;
	phases CS;
	nominal_voltage 120;
}

object triplex_meter {
	name N_L_67807_sec_B;
	phases BS;
	nominal_voltage 120;
}

object triplex_meter {
	name N_L_67807_sec_A;
	phases AS;
	nominal_voltage 120;
}

object triplex_meter {
	name N_L_127741_sec_A;
	phases AS;
	nominal_voltage 120;
}

object triplex_meter {
	name N_L_127741_sec_B;
	phases BS;
	nominal_voltage 120;
}

object triplex_meter {
	name N_L_127741_sec_C;
	phases CS;
	nominal_voltage 120;
}

object triplex_meter {
	name N_L_32271_sec_B;
	phases BS;
	nominal_voltage 120;
}

object triplex_meter {
	name N_L_32271_sec_C;
	phases CS;
	nominal_voltage 120;
}

object triplex_meter {
	name N_L_2289_sec_A;
	phases AS;
	nominal_voltage 120;
}

object triplex_meter {
	name N_L_2289_sec_C;
	phases CS;
	nominal_voltage 120;
}

object triplex_meter {
	name N_L_65581_sec_B;
	phases BS;
	nominal_voltage 120;
}

object triplex_meter {
	name N_L_92702_sec_A;
	phases AS;
	nominal_voltage 120;
}

object triplex_meter {
	name N_L_65581_sec_A;
	phases AS;
	nominal_voltage 120;
}

object triplex_meter {
	name N_L_51887_sec_A;
	phases AS;
	nominal_voltage 120;
}

object triplex_meter {
	name N_L_92702_sec_C;
	phases CS;
	nominal_voltage 120;
}

object triplex_meter {
	name N_L_92702_sec_B;
	phases BS;
	nominal_voltage 120;
}

object triplex_meter {
	name N_L_127485_sec_C;
	phases CS;
	nominal_voltage 120;
}

object triplex_meter {
	name N_L_81008_sec_A;
	phases AS;
	nominal_voltage 120;
}

object triplex_meter {
	name N_L_81008_sec_B;
	phases BS;
	nominal_voltage 120;
}

object triplex_meter {
	name N_L_127485_sec_B;
	phases BS;
	nominal_voltage 120;
}

object triplex_meter {
	name N_L_11280_sec_C;
	phases CS;
	nominal_voltage 120;
}

object triplex_meter {
	name N_L_11280_sec_B;
	phases BS;
	nominal_voltage 120;
}

object triplex_meter {
	name N_L_11280_sec_A;
	phases AS;
	nominal_voltage 120;
}

object triplex_meter {
	name N_L_96549_sec_A;
	phases AS;
	nominal_voltage 120;
}

object triplex_meter {
	name N_L_96549_sec_B;
	phases BS;
	nominal_voltage 120;
}

object triplex_meter {
	name N_L_96549_sec_C;
	phases CS;
	nominal_voltage 120;
}

object triplex_meter {
	name N_L_144774_sec_C;
	phases CS;
	nominal_voltage 120;
}

object triplex_meter {
	name N_L_6625_sec_B;
	phases BS;
	nominal_voltage 120;
}

object triplex_meter {
	name N_L_144774_sec_A;
	phases AS;
	nominal_voltage 120;
}

object triplex_meter {
	name N_L_75809_sec_B;
	phases BS;
	nominal_voltage 120;
}

object triplex_meter {
	name N_L_75809_sec_C;
	phases CS;
	nominal_voltage 120;
}

object triplex_meter {
	name N_L_75809_sec_A;
	phases AS;
	nominal_voltage 120;
}

object triplex_meter {
	name N_L_21316_sec_A;
	phases AS;
	nominal_voltage 120;
}

object triplex_meter {
	name N_L_21316_sec_B;
	phases BS;
	nominal_voltage 120;
}

object triplex_meter {
	name N_L_21316_sec_C;
	phases CS;
	nominal_voltage 120;
}

object triplex_meter {
	name N_L_22077_sec_A;
	phases AS;
	nominal_voltage 120;
}

object triplex_meter {
	name N_L_22077_sec_B;
	phases BS;
	nominal_voltage 120;
}

object triplex_meter {
	name N_L_96284_sec_B;
	phases BS;
	nominal_voltage 120;
}

object triplex_meter {
	name N_L_81996_sec_A;
	phases AS;
	nominal_voltage 120;
}

object triplex_meter {
	name N_L_142715_sec_B;
	phases BS;
	nominal_voltage 120;
}

object triplex_meter {
	name N_L_6625_sec_C;
	phases CS;
	nominal_voltage 120;
}

object triplex_meter {
	name N_L_52586_sec_A;
	phases AS;
	nominal_voltage 120;
}

object triplex_meter {
	name N_L_64975_sec_C;
	phases CS;
	nominal_voltage 120;
}

object triplex_meter {
	name N_L_6625_sec_A;
	phases AS;
	nominal_voltage 120;
}

object triplex_meter {
	name N_L_91793_sec_B;
	phases BS;
	nominal_voltage 120;
}

object triplex_meter {
	name N_L_91793_sec_C;
	phases CS;
	nominal_voltage 120;
}

object triplex_meter {
	name N_L_91793_sec_A;
	phases AS;
	nominal_voltage 120;
}

object triplex_meter {
	name N_L_93413_sec_C;
	phases CS;
	nominal_voltage 120;
}

object triplex_meter {
	name N_L_93413_sec_B;
	phases BS;
	nominal_voltage 120;
}

object triplex_meter {
	name N_L_93413_sec_A;
	phases AS;
	nominal_voltage 120;
}

object triplex_meter {
	name N_L_229_sec_B;
	phases BS;
	nominal_voltage 120;
}

object triplex_meter {
	name N_L_229_sec_C;
	phases CS;
	nominal_voltage 120;
}

object triplex_meter {
	name N_L_64975_sec_A;
	phases AS;
	nominal_voltage 120;
}

object triplex_meter {
	name N_L_81996_sec_B;
	phases BS;
	nominal_voltage 120;
}

object triplex_meter {
	name N_L_81996_sec_C;
	phases CS;
	nominal_voltage 120;
}

object triplex_meter {
	name N_L_22666_sec_A;
	phases AS;
	nominal_voltage 120;
}

object triplex_meter {
	name N_L_22666_sec_B;
	phases BS;
	nominal_voltage 120;
}

object triplex_meter {
	name N_L_124883_sec_A;
	phases AS;
	nominal_voltage 120;
}

object triplex_meter {
	name N_L_124883_sec_B;
	phases BS;
	nominal_voltage 120;
}

object triplex_meter {
	name N_L_124883_sec_C;
	phases CS;
	nominal_voltage 120;
}

object triplex_meter {
	name N_L_114742_sec_C;
	phases CS;
	nominal_voltage 120;
}

object triplex_meter {
	name N_L_114742_sec_B;
	phases BS;
	nominal_voltage 120;
}

object triplex_meter {
	name N_L_39263_sec_A;
	phases AS;
	nominal_voltage 120;
}

object triplex_meter {
	name N_L_39263_sec_B;
	phases BS;
	nominal_voltage 120;
}

object triplex_meter {
	name N_L_39263_sec_C;
	phases CS;
	nominal_voltage 120;
}

object triplex_meter {
	name N_L_125183_sec_C;
	phases CS;
	nominal_voltage 120;
}

object triplex_meter {
	name N_L_125183_sec_A;
	phases AS;
	nominal_voltage 120;
}

object triplex_meter {
	name N_L_54986_sec_A;
	phases AS;
	nominal_voltage 120;
}

object triplex_meter {
	name N_L_51887_sec_C;
	phases CS;
	nominal_voltage 120;
}

object triplex_meter {
	name N_L_22666_sec_C;
	phases CS;
	nominal_voltage 120;
}

object triplex_meter {
	name N_L_54986_sec_B;
	phases BS;
	nominal_voltage 120;
}

object triplex_meter {
	name N_L_33367_sec_C;
	phases CS;
	nominal_voltage 120;
}

object triplex_meter {
	name N_L_33367_sec_B;
	phases BS;
	nominal_voltage 120;
}

object triplex_meter {
	name N_L_33367_sec_A;
	phases AS;
	nominal_voltage 120;
}

object triplex_meter {
	name N_L_52586_sec_B;
	phases BS;
	nominal_voltage 120;
}

object triplex_meter {
	name N_L_33252_sec_B;
	phases BS;
	nominal_voltage 120;
}

object triplex_meter {
	name N_L_33252_sec_C;
	phases CS;
	nominal_voltage 120;
}

object triplex_meter {
	name N_L_33252_sec_A;
	phases AS;
	nominal_voltage 120;
}

object triplex_meter {
	name N_L_122711_sec_A;
	phases AS;
	nominal_voltage 120;
}

object triplex_meter {
	name N_L_122711_sec_B;
	phases BS;
	nominal_voltage 120;
}

object triplex_meter {
	name N_L_122711_sec_C;
	phases CS;
	nominal_voltage 120;
}

object triplex_meter {
	name N_L_78136_sec_B;
	phases BS;
	nominal_voltage 120;
}

object triplex_meter {
	name N_L_78136_sec_C;
	phases CS;
	nominal_voltage 120;
}

object triplex_meter {
	name N_L_127485_sec_A;
	phases AS;
	nominal_voltage 120;
}

object triplex_meter {
	name N_L_78136_sec_A;
	phases AS;
	nominal_voltage 120;
}

object triplex_meter {
	name N_L_109171_sec_C;
	phases CS;
	nominal_voltage 120;
}

object triplex_meter {
	name N_L_109171_sec_A;
	phases AS;
	nominal_voltage 120;
}

object triplex_meter {
	name N_L_96284_sec_A;
	phases AS;
	nominal_voltage 120;
}

object triplex_meter {
	name N_L_52586_sec_C;
	phases CS;
	nominal_voltage 120;
}

object triplex_meter {
	name N_L_142715_sec_C;
	phases CS;
	nominal_voltage 120;
}

object triplex_meter {
	name N_L_71144_sec_B;
	phases BS;
	nominal_voltage 120;
}

object triplex_meter {
	name N_L_71144_sec_C;
	phases CS;
	nominal_voltage 120;
}

object triplex_meter {
	name N_L_82854_sec_B;
	phases BS;
	nominal_voltage 120;
}

object triplex_meter {
	name N_L_82854_sec_C;
	phases CS;
	nominal_voltage 120;
}

object triplex_meter {
	name N_L_82854_sec_A;
	phases AS;
	nominal_voltage 120;
}

object triplex_meter {
	name N_L_38426_sec_B;
	phases BS;
	nominal_voltage 120;
}

object triplex_meter {
	name N_L_38426_sec_C;
	phases CS;
	nominal_voltage 120;
}

object triplex_meter {
	name N_L_51888_sec_A;
	phases AS;
	nominal_voltage 120;
}

object triplex_meter {
	name N_L_51888_sec_C;
	phases CS;
	nominal_voltage 120;
}

object triplex_meter {
	name N_L_51888_sec_B;
	phases BS;
	nominal_voltage 120;
}

//*********************************************
// Inverter Objects
//*********************************************
object inverter {
	name inverter_L_79098_A;
	parent N_L_79098_sec_A;
	phases AS;
	generator_mode CONSTANT_PF;
	generator_status OFFLINE;
	inverter_type PWM;
	power_factor 1.0;
	rated_power 30000.0;
	inverter_efficiency 0.9;
}

object inverter {
	name inverter_L_79098_B;
	parent N_L_79098_sec_B;
	phases BS;
	generator_mode CONSTANT_PF;
	generator_status OFFLINE;
	inverter_type PWM;
	power_factor 1.0;
	rated_power 30000.0;
	inverter_efficiency 0.9;
}

object inverter {
	name inverter_L_79098_C;
	parent N_L_79098_sec_C;
	phases CS;
	generator_mode CONSTANT_PF;
	generator_status OFFLINE;
	inverter_type PWM;
	power_factor 1.0;
	rated_power 30000.0;
	inverter_efficiency 0.9;
}

object inverter {
	name inverter_L_51887_B;
	parent N_L_51887_sec_B;
	phases BS;
	generator_mode CONSTANT_PF;
	generator_status OFFLINE;
	inverter_type PWM;
	power_factor 1.0;
	rated_power 30000.0;
	inverter_efficiency 0.9;
}

object inverter {
	name inverter_L_42477_C;
	parent N_L_42477_sec_C;
	phases CS;
	generator_mode CONSTANT_PF;
	generator_status OFFLINE;
	inverter_type PWM;
	power_factor 1.0;
	rated_power 30000.0;
	inverter_efficiency 0.9;
}

object inverter {
	name inverter_L_42477_B;
	parent N_L_42477_sec_B;
	phases BS;
	generator_mode CONSTANT_PF;
	generator_status OFFLINE;
	inverter_type PWM;
	power_factor 1.0;
	rated_power 30000.0;
	inverter_efficiency 0.9;
}

object inverter {
	name inverter_L_67807_C;
	parent N_L_67807_sec_C;
	phases CS;
	generator_mode CONSTANT_PF;
	generator_status OFFLINE;
	inverter_type PWM;
	power_factor 1.0;
	rated_power 30000.0;
	inverter_efficiency 0.9;
}

object inverter {
	name inverter_L_67807_B;
	parent N_L_67807_sec_B;
	phases BS;
	generator_mode CONSTANT_PF;
	generator_status OFFLINE;
	inverter_type PWM;
	power_factor 1.0;
	rated_power 30000.0;
	inverter_efficiency 0.9;
}

object inverter {
	name inverter_L_67807_A;
	parent N_L_67807_sec_A;
	phases AS;
	generator_mode CONSTANT_PF;
	generator_status OFFLINE;
	inverter_type PWM;
	power_factor 1.0;
	rated_power 30000.0;
	inverter_efficiency 0.9;
}

object inverter {
	name inverter_L_127741_A;
	parent N_L_127741_sec_A;
	phases AS;
	generator_mode CONSTANT_PF;
	generator_status OFFLINE;
	inverter_type PWM;
	power_factor 1.0;
	rated_power 30000.0;
	inverter_efficiency 0.9;
}

object inverter {
	name inverter_L_127741_B;
	parent N_L_127741_sec_B;
	phases BS;
	generator_mode CONSTANT_PF;
	generator_status OFFLINE;
	inverter_type PWM;
	power_factor 1.0;
	rated_power 30000.0;
	inverter_efficiency 0.9;
}

object inverter {
	name inverter_L_127741_C;
	parent N_L_127741_sec_C;
	phases CS;
	generator_mode CONSTANT_PF;
	generator_status OFFLINE;
	inverter_type PWM;
	power_factor 1.0;
	rated_power 30000.0;
	inverter_efficiency 0.9;
}

object inverter {
	name inverter_L_32271_B;
	parent N_L_32271_sec_B;
	phases BS;
	generator_mode CONSTANT_PF;
	generator_status OFFLINE;
	inverter_type PWM;
	power_factor 1.0;
	rated_power 30000.0;
	inverter_efficiency 0.9;
}

object inverter {
	name inverter_L_32271_C;
	parent N_L_32271_sec_C;
	phases CS;
	generator_mode CONSTANT_PF;
	generator_status OFFLINE;
	inverter_type PWM;
	power_factor 1.0;
	rated_power 30000.0;
	inverter_efficiency 0.9;
}

object inverter {
	name inverter_L_2289_A;
	parent N_L_2289_sec_A;
	phases AS;
	generator_mode CONSTANT_PF;
	generator_status OFFLINE;
	inverter_type PWM;
	power_factor 1.0;
	rated_power 30000.0;
	inverter_efficiency 0.9;
}

object inverter {
	name inverter_L_2289_C;
	parent N_L_2289_sec_C;
	phases CS;
	generator_mode CONSTANT_PF;
	generator_status OFFLINE;
	inverter_type PWM;
	power_factor 1.0;
	rated_power 30000.0;
	inverter_efficiency 0.9;
}

object inverter {
	name inverter_L_65581_B;
	parent N_L_65581_sec_B;
	phases BS;
	generator_mode CONSTANT_PF;
	generator_status OFFLINE;
	inverter_type PWM;
	power_factor 1.0;
	rated_power 30000.0;
	inverter_efficiency 0.9;
}

object inverter {
	name inverter_L_92702_A;
	parent N_L_92702_sec_A;
	phases AS;
	generator_mode CONSTANT_PF;
	generator_status OFFLINE;
	inverter_type PWM;
	power_factor 1.0;
	rated_power 30000.0;
	inverter_efficiency 0.9;
}

object inverter {
	name inverter_L_65581_A;
	parent N_L_65581_sec_A;
	phases AS;
	generator_mode CONSTANT_PF;
	generator_status OFFLINE;
	inverter_type PWM;
	power_factor 1.0;
	rated_power 30000.0;
	inverter_efficiency 0.9;
}

object inverter {
	name inverter_L_51887_A;
	parent N_L_51887_sec_A;
	phases AS;
	generator_mode CONSTANT_PF;
	generator_status OFFLINE;
	inverter_type PWM;
	power_factor 1.0;
	rated_power 30000.0;
	inverter_efficiency 0.9;
}

object inverter {
	name inverter_L_92702_C;
	parent N_L_92702_sec_C;
	phases CS;
	generator_mode CONSTANT_PF;
	generator_status OFFLINE;
	inverter_type PWM;
	power_factor 1.0;
	rated_power 30000.0;
	inverter_efficiency 0.9;
}

object inverter {
	name inverter_L_92702_B;
	parent N_L_92702_sec_B;
	phases BS;
	generator_mode CONSTANT_PF;
	generator_status OFFLINE;
	inverter_type PWM;
	power_factor 1.0;
	rated_power 30000.0;
	inverter_efficiency 0.9;
}

object inverter {
	name inverter_L_127485_C;
	parent N_L_127485_sec_C;
	phases CS;
	generator_mode CONSTANT_PF;
	generator_status OFFLINE;
	inverter_type PWM;
	power_factor 1.0;
	rated_power 30000.0;
	inverter_efficiency 0.9;
}

object inverter {
	name inverter_L_81008_A;
	parent N_L_81008_sec_A;
	phases AS;
	generator_mode CONSTANT_PF;
	generator_status OFFLINE;
	inverter_type PWM;
	power_factor 1.0;
	rated_power 30000.0;
	inverter_efficiency 0.9;
}

object inverter {
	name inverter_L_81008_B;
	parent N_L_81008_sec_B;
	phases BS;
	generator_mode CONSTANT_PF;
	generator_status OFFLINE;
	inverter_type PWM;
	power_factor 1.0;
	rated_power 30000.0;
	inverter_efficiency 0.9;
}

object inverter {
	name inverter_L_127485_B;
	parent N_L_127485_sec_B;
	phases BS;
	generator_mode CONSTANT_PF;
	generator_status OFFLINE;
	inverter_type PWM;
	power_factor 1.0;
	rated_power 30000.0;
	inverter_efficiency 0.9;
}

object inverter {
	name inverter_L_11280_C;
	parent N_L_11280_sec_C;
	phases CS;
	generator_mode CONSTANT_PF;
	generator_status OFFLINE;
	inverter_type PWM;
	power_factor 1.0;
	rated_power 30000.0;
	inverter_efficiency 0.9;
}

object inverter {
	name inverter_L_11280_B;
	parent N_L_11280_sec_B;
	phases BS;
	generator_mode CONSTANT_PF;
	generator_status OFFLINE;
	inverter_type PWM;
	power_factor 1.0;
	rated_power 30000.0;
	inverter_efficiency 0.9;
}

object inverter {
	name inverter_L_11280_A;
	parent N_L_11280_sec_A;
	phases AS;
	generator_mode CONSTANT_PF;
	generator_status OFFLINE;
	inverter_type PWM;
	power_factor 1.0;
	rated_power 30000.0;
	inverter_efficiency 0.9;
}

object inverter {
	name inverter_L_96549_A;
	parent N_L_96549_sec_A;
	phases AS;
	generator_mode CONSTANT_PF;
	generator_status OFFLINE;
	inverter_type PWM;
	power_factor 1.0;
	rated_power 30000.0;
	inverter_efficiency 0.9;
}

object inverter {
	name inverter_L_96549_B;
	parent N_L_96549_sec_B;
	phases BS;
	generator_mode CONSTANT_PF;
	generator_status OFFLINE;
	inverter_type PWM;
	power_factor 1.0;
	rated_power 30000.0;
	inverter_efficiency 0.9;
}

object inverter {
	name inverter_L_96549_C;
	parent N_L_96549_sec_C;
	phases CS;
	generator_mode CONSTANT_PF;
	generator_status OFFLINE;
	inverter_type PWM;
	power_factor 1.0;
	rated_power 30000.0;
	inverter_efficiency 0.9;
}

object inverter {
	name inverter_L_144774_C;
	parent N_L_144774_sec_C;
	phases CS;
	generator_mode CONSTANT_PF;
	generator_status OFFLINE;
	inverter_type PWM;
	power_factor 1.0;
	rated_power 30000.0;
	inverter_efficiency 0.9;
}

object inverter {
	name inverter_L_6625_B;
	parent N_L_6625_sec_B;
	phases BS;
	generator_mode CONSTANT_PF;
	generator_status OFFLINE;
	inverter_type PWM;
	power_factor 1.0;
	rated_power 30000.0;
	inverter_efficiency 0.9;
}

object inverter {
	name inverter_L_144774_A;
	parent N_L_144774_sec_A;
	phases AS;
	generator_mode CONSTANT_PF;
	generator_status OFFLINE;
	inverter_type PWM;
	power_factor 1.0;
	rated_power 30000.0;
	inverter_efficiency 0.9;
}

object inverter {
	name inverter_L_75809_B;
	parent N_L_75809_sec_B;
	phases BS;
	generator_mode CONSTANT_PF;
	generator_status OFFLINE;
	inverter_type PWM;
	power_factor 1.0;
	rated_power 30000.0;
	inverter_efficiency 0.9;
}

object inverter {
	name inverter_L_75809_C;
	parent N_L_75809_sec_C;
	phases CS;
	generator_mode CONSTANT_PF;
	generator_status OFFLINE;
	inverter_type PWM;
	power_factor 1.0;
	rated_power 30000.0;
	inverter_efficiency 0.9;
}

object inverter {
	name inverter_L_75809_A;
	parent N_L_75809_sec_A;
	phases AS;
	generator_mode CONSTANT_PF;
	generator_status OFFLINE;
	inverter_type PWM;
	power_factor 1.0;
	rated_power 30000.0;
	inverter_efficiency 0.9;
}

object inverter {
	name inverter_L_21316_A;
	parent N_L_21316_sec_A;
	phases AS;
	generator_mode CONSTANT_PF;
	generator_status OFFLINE;
	inverter_type PWM;
	power_factor 1.0;
	rated_power 30000.0;
	inverter_efficiency 0.9;
}

object inverter {
	name inverter_L_21316_B;
	parent N_L_21316_sec_B;
	phases BS;
	generator_mode CONSTANT_PF;
	generator_status OFFLINE;
	inverter_type PWM;
	power_factor 1.0;
	rated_power 30000.0;
	inverter_efficiency 0.9;
}

object inverter {
	name inverter_L_21316_C;
	parent N_L_21316_sec_C;
	phases CS;
	generator_mode CONSTANT_PF;
	generator_status OFFLINE;
	inverter_type PWM;
	power_factor 1.0;
	rated_power 30000.0;
	inverter_efficiency 0.9;
}

object inverter {
	name inverter_L_22077_A;
	parent N_L_22077_sec_A;
	phases AS;
	generator_mode CONSTANT_PF;
	generator_status OFFLINE;
	inverter_type PWM;
	power_factor 1.0;
	rated_power 30000.0;
	inverter_efficiency 0.9;
}

object inverter {
	name inverter_L_22077_B;
	parent N_L_22077_sec_B;
	phases BS;
	generator_mode CONSTANT_PF;
	generator_status OFFLINE;
	inverter_type PWM;
	power_factor 1.0;
	rated_power 30000.0;
	inverter_efficiency 0.9;
}

object inverter {
	name inverter_L_96284_B;
	parent N_L_96284_sec_B;
	phases BS;
	generator_mode CONSTANT_PF;
	generator_status OFFLINE;
	inverter_type PWM;
	power_factor 1.0;
	rated_power 30000.0;
	inverter_efficiency 0.9;
}

object inverter {
	name inverter_L_81996_A;
	parent N_L_81996_sec_A;
	phases AS;
	generator_mode CONSTANT_PF;
	generator_status OFFLINE;
	inverter_type PWM;
	power_factor 1.0;
	rated_power 30000.0;
...